data/projects/lehigh1mg/circuit_plusmg_0.dss
clear
set defaultbasefrequency=60
new object=circuit.lehigh basekv=115 pu=1.0001 phases=3 bus1=sourcebus angle=30 mvasc3=20000 mvasc1=21000
edit object=vsource.source basekv=115 bus1=sourcebus.1.2.3 pu=1.00 r1=0 x1=0.0001 r0=0 x0=0.0001
new object=vsource.secondsource basekv=4.16 bus1=680.1.2.3 pu=1.00 r1=0 x1=0.0001 r0=0 x0=0.0001
new object=transformer.sub phases=3 windings=2 xhl=0.008 buses=[sourcebus.1.2.3,650.1.2.3] conns=[delta,wye] kvs=[115,4.16] kvas=[5000,5000] %rs=[0.0005,0.0005]
new object=transformer.reg1 phases=1 bank=reg1 xhl=0.01 kvas=[1666,1666] buses=[650.1,rg60.1] kvs=[2.4,2.4] %loadloss=0.01
new object=regcontrol.reg1 transformer=reg1 winding=2 vreg=121 band=2 ptratio=20 ctprim=700 r=3 x=9
new object=transformer.reg2 phases=1 bank=reg1 xhl=0.01 kvas=[1666,1666] buses=[650.2,rg60.2] kvs=[2.4,2.4] %loadloss=0.01
new object=regcontrol.reg2 transformer=reg2 winding=2 vreg=121 band=2 ptratio=20 ctprim=700 r=3 x=9
new object=transformer.reg3 phases=1 bank=reg1 xhl=0.01 kvas=[1666,1666] buses=[650.3,rg60.3] kvs=[2.4,2.4] %loadloss=0.01
new object=regcontrol.reg3 transformer=reg3 winding=2 vreg=121 band=2 ptratio=20 ctprim=700 r=3 x=9
new object=transformer.xfm1 phases=3 windings=2 xhl=2 buses=[633.1.2.3,634.1.2.3] conns=[wye,wye] kvs=[4.16,0.480] kvas=[500,500] %rs=[0.55,0.55] xht=1 xlt=1
new object=linecode.mtx601 nphases=3 basefreq=60 rmatrix=[0.3465|0.1560,0.3375|0.1580,0.1535,0.3414] xmatrix=[1.0179|0.5017,1.0478|0.4236,0.3849,1.0348] units=mi
new object=linecode.mtx602 nphases=3 basefreq=60 rmatrix=[0.7526|0.1580,0.7475|0.1560,0.1535,0.7436] xmatrix=[1.1814|0.4236,1.1983|0.5017,0.3849,1.2112] units=mi
new object=linecode.mtx603 nphases=2 basefreq=60 rmatrix=[1.3238|0.2066,1.3294] xmatrix=[1.3569|0.4591,1.3471] units=mi
new object=linecode.mtx604 nphases=2 basefreq=60 rmatrix=[1.3238|0.2066,1.3294] xmatrix=[1.3569|0.4591,1.3471] units=mi
new object=linecode.mtx605 nphases=1 basefreq=60 rmatrix=[1.3292] xmatrix=[1.3475] units=mi
new object=linecode.mtx606 nphases=3 units=mi rmatrix=[0.791721|0.318476,0.781649|0.28345,0.318476,0.791721] xmatrix=[0.438352|0.0276838,0.396697|-0.0184204,0.0276838,0.438352] cmatrix=[383.948|0,383.948|0,0,383.948]
new object=linecode.mtx607 nphases=1 basefreq=60 rmatrix=[1.3425] xmatrix=[0.5124] cmatrix=[236] units=mi
new object=loadshape.solar_670_shape npts=8760 interval=1 useactual=yes mult=[0.0,0.0,0.0,0.0,0.0,0.0,0.0,0.0,34.1574133560315,103.56640929130356,146.19557846391035,449.24262669996193,103.02002517215948,240.7431473270341,360.15889902827917,387.75830196966064,193.7429052012745,12.84352926218854,0.0,0.0,0.0,0.0,0.0,0.0,0.0,0.0,0.0,0.0,0.0,0.0,0.0,0.0,89.63011179082683,227.6271264977339,318.62319858642104,12.570337202616487,683.9748482239504,244.56923714596363,888.1011531663443,610.7404629622093,322.44858791289016,27.599402941381424,0.0,0.0,0.0,0.0,0.0,0.0,0.0,0.0,0.0,0.0,0.0,0.0,0.0,0.0,262.8780085845141,612.9259994387857,814.3196832929984,345.1298332895143,613.7462761099622,612.1064232600695,500.06895864465105,434.21286046873655,227.900318557306,18.03557937897836,0.0,0.0,0.0,0.0,0.0,0.0,0.0,0.0,0.0,0.0,0.0,0.0,0.0,0.0,400.05544711270505,916.5201322864418,1301.2726211083493,1541.4700848087,1633.012541016531,1589.8369877247803,1398.554212044575,1072.0063422531832,584.2338282591161,114.7700857035994,0.0,0.0,0.0,0.0,0.0,0.0,0.0,0.0,0.0,0.0,0.0,0.0,0.0,0.0,435.0324366474527,970.6261699309164,1365.7620584939432,1605.1399460155778,1692.5838208373675,1632.7393489569586,1427.7927673433887,1088.4020687822688,589.6990704354779,112.03746461541844,0.0,0.0,0.0,0.0,0.0,0.0,0.0,0.0,0.0,0.0,0.0,0.0,0.0,0.0,343.76317249919356,814.0471917258868,1276.132647195577,1143.6008746650316,1292.8015657842343,1333.5176900473764,1338.7097401641663,1015.7140676396716,549.8025223510521,102.74613262012696,0.0,0.0,0.0,0.0,0.0,0.0,0.0,0.0,0.0,0.0,0.0,0.0,0.0,0.0,348.95592310844387,346.4957935873745,1238.1491440206155,1420.1419886904505,1271.760173257503,1217.654836105489,1026.3713599328237,524.6625484382795,277.08749814456286,29.512447850846208,0.0,0.0,0.0,0.0,0.0,0.0,0.0,0.0,0.0,0.0,0.0,0.0,0.0,0.0,355.24004097106143,828.2566812859357,218.60968705447496,288.01798249728665,644.6246842586687,746.8244327596517,611.8332312004974,396.5025493533475,210.41182378993216,24.320397734056385,0.0,0.0,0.0,0.0,0.0,0.0,0.0,0.0,0.0,0.0,0.0,0.0,0.0,0.0,365.077757085497,838.0936969079107,449.24262669996193,955.5964036996912,748.4635851170839,349.5016067351275,448.14915796921326,374.9154731999325,194.28928932041865,91.81564826740323,0.0,0.0,0.0,0.0,0.0,0.0,0.0,0.0,0.0,0.0,0.0,0.0,0.0,0.0,169.14931540764607,418.09032599922296,673.5900474979104,1154.5313590177554,670.0378502310133,874.9837313521231,888.6475372854884,717.0387928492333,400.05544711270505,70.22857211398822,0.0,0.0,0.0,0.0,0.0,0.0,0.0,0.0,0.0,0.0,0.0,0.0,0.0,0.0,440.4976788238146,974.9979433765296,1364.669290255655,1599.4015117796437,1685.7519178706848,1633.012541016531,1442.2754489630097,1122.8326741978724,666.4856529641162,164.23045735042828,0.0,0.0,0.0,0.0,0.0,0.0,0.0,0.0,0.0,0.0,0.0,0.0,0.0,0.0,406.8866495869271,924.1716114318406,1296.9008476627362,1572.6216850169783,1668.8098072224552,1631.6458802262105,1445.8283467223669,1094.686887137347,650.9095026137468,161.7710283218194,0.0,0.0,0.0,0.0,0.0,0.0,0.0,0.0,0.0,0.0,0.0,0.0,0.0,0.0,398.14240220324024,913.7875111982607,1286.7892389962683,1187.0496200163543,1317.6690481298954,1198.2532964286504,1081.2969737560145,862.6872867015392,511.819019176091,123.78752514685831,0.0,0.0,0.0,0.0,0.0,0.0,0.0,0.0,0.0,0.0,0.0,0.0,0.0,0.0,165.86960970786058,392.9503520864504,712.1206352844761,907.7751844102944,1040.0344653737282,954.5036354614028,564.5590965227054,459.62602644108114,259.32511082515657,42.355276620574315,0.0,0.0,0.0,0.0,0.0,0.0,0.0,0.0,0.0,0.0,0.0,0.0,0.0,0.0,87.44387482178999,234.73222152398856,1090.314413199273,1359.2040480792932,1569.8890639287972,1557.3187267261812,1391.1759249587485,1086.215831813232,633.1478157868008,160.13117547192667,0.0,0.0,0.0,0.0,0.0,0.0,0.0,0.0,0.0,0.0,0.0,0.0,0.0,0.0,362.0719439377439,841.3727021152357,1186.7764279567823,1003.6908150486596,1179.6713329305278,1536.0048426323378,928.2701928178816,424.1026527871893,237.4648426121695,42.90236123217885,0.0,0.0,0.0,0.0,0.0,0.0,0.0,0.0,0.0,0.0,0.0,0.0,0.0,0.0,374.36838858832795,900.397597816928,1314.38934243011,1601.8609408082527,1662.7974804344888,1620.1690117543426,1438.7232516961124,1132.1233057007034,662.9334556972191,172.70151267454315,0.0,0.0,0.0,0.0,0.0,0.0,0.0,0.0,0.0,0.0,0.0,0.0,0.0,0.0,408.799694496392,920.8926062245154,1332.4242213166278,1578.08692719334,1676.461286367854,1634.378501314391,1466.869038756638,1148.519032229789,674.683516228659,178.16675485090502,0.0,0.0,0.0,0.0,0.0,0.0,0.0,0.0,0.0,0.0,0.0,0.0,0.0,0.0,431.2070473209836,966.8000801119867,1355.925042871968,1587.651451248203,1739.3115713960156,1694.7693573139438,1506.2192027219194,1152.0719299891466,708.8409295846906,194.28928932041865,0.0,0.0,0.0,0.0,0.0,0.0,0.0,0.0,0.0,0.0,0.0,0.0,0.0,0.0,423.2823761160128,944.1195352278232,1320.127776666044,1545.841858254313,1630.27991992835,1581.365932400665,1409.757888456871,1111.6289977855763,673.5900474979104,181.172567998658,0.0,0.0,0.0,0.0,0.0,0.0,0.0,0.0,0.0,0.0,0.0,0.0,0.0,0.0,109.03165146766544,272.9882162660612,413.4453604940376,236.0981818218488,684.5212323430947,182.53922878897868,190.46319950148904,2.732621088180937,0.0,0.0,0.0,0.0,0.0,0.0,0.0,0.0,0.0,0.0,0.0,0.0,0.0,0.0,0.0,0.0,100.56059614355058,295.3962695831133,834.8146917005856,891.6533504332413,1683.2931893345367,1646.9488385170075,778.2499255199625,675.2299003478031,392.6771600268784,87.17068276221794,0.0,0.0,0.0,0.0,0.0,0.0,0.0,0.0,0.0,0.0,0.0,0.0,0.0,0.0,113.67661697285074,294.84918497150875,342.6704042609054,852.8502710795641,1799.4292353359965,1769.097211306434,1578.9065033720562,1246.3470072851585,752.0164828764415,213.14444487811315,0.0,0.0,0.0,0.0,0.0,0.0,0.0,0.0,0.0,0.0,0.0,0.0,0.0,0.0,450.8817790573942,992.760330695936,1383.5244458133495,1617.710283218194,1715.2643657215312,1673.7286652796731,1499.114107695665,1188.4155803142148,744.3650037310427,218.06260244287043,0.0,0.0,0.0,0.0,0.0,0.0,0.0,0.0,0.0,0.0,0.0,0.0,0.0,0.0,429.5678949635513,948.7652012254688,1319.854584606472,1546.9346264926012,1640.1176360427858,1595.302229901142,1432.4384333410344,1143.053790053427,714.5793638206244,210.68501584950425,0.0,0.0,0.0,0.0,0.0,0.0,0.0,0.0,0.0,0.0,0.0,0.0,0.0,0.0,285.0121693495336,653.3689316423556,753.1092511147297,1117.9145166331148,1251.5390574019484,1199.3460646669384,1091.954266049166,803.1167073731631,491.8710953801083,140.45644373551602,0.0,0.0,0.0,0.0,0.0,0.0,0.0,0.0,0.0,0.0,0.0,0.0,0.0,0.0,338.84431444197577,791.6398389012952,767.0462491076668,1424.7869541956356,1503.2133895741667,1090.587605258845,151.38692808823976,1060.256281721743,626.3159128201182,176.25370994144023,0.0,0.0,0.0,0.0,0.0,0.0,0.0,0.0,0.0,0.0,0.0,0.0,0.0,0.0,95.91493014590486,154.39274123599276,232.8191766145238,359.8857069687071,284.1925931708175,197.29510246817156,200.02772355635253,77.60615870735444,39.896548084425866,0.8195761787161489,0.0,0.0,0.0,0.0,0.0,0.0,0.0,0.0,0.0,0.0,0.0,0.0,0.0,0.0,451.42816317653825,983.7428912526768,1369.5881483128728,1608.1457591633305,1705.4266496070954,1667.443846924595,1508.6786317505284,1212.4627859886991,746.2780486405076,236.3713738814208,0.0,0.0,0.0,0.0,0.0,0.0,0.0,0.0,0.0,0.0,0.0,0.0,0.0,0.0,428.7476182923747,947.9449245542924,1326.412595021122,1553.766529459284,1648.8618834264723,1614.9769616375524,1454.299402046482,933.4622429346716,621.1238627033284,234.73222152398856,0.0,0.0,0.0,0.0,0.0,0.0,0.0,0.0,0.0,0.0,0.0,0.0,0.0,0.0,133.89843332086593,410.7127394058568,699.276405529827,707.7481613464023,910.5085059909356,859.9546656133582,776.3368806104977,558.5467697347391,342.6704042609054,98.37435917451376,0.0,0.0,0.0,0.0,0.0,0.0,0.0,0.0,0.0,0.0,0.0,0.0,0.0,0.0,451.1549711169663,991.6668619651872,1405.385414518797,1646.4024543978635,1748.0558187797023,1717.72379475014,1542.8360451065598,1243.6143861969776,774.423835701033,258.50553464644037,0.0,0.0,0.0,0.0,0.0,0.0,0.0,0.0,0.0,0.0,0.0,0.0,0.0,0.0,452.79482396685904,965.4341198141263,1339.2561242833103,1569.3426798096534,1663.0713729865215,1637.3850149546045,1482.718381166579,1200.1656408456547,774.150643641461,263.42439270365816,0.0,0.0,0.0,0.0,0.0,0.0,0.0,0.0,0.0,0.0,0.0,0.0,0.0,0.0,449.515818759534,389.94453893869746,914.607087376977,1136.4957796387769,1296.9001471702757,1270.394212959643,1094.4136950777747,313.4311484696312,226.53435825944572,149.47388317877494,0.0,0.0,0.0,0.0,0.0,0.0,0.0,0.0,0.0,0.0,0.0,0.0,0.0,0.0,0.0,347.31607025855106,936.468756574885,1313.2965741918215,1711.16578433549,1709.799123545169,1566.610058721472,1273.94641022654,803.9362835518792,282.8259323804968,0.0,0.0,0.0,0.0,0.0,0.0,0.0,0.0,0.0,0.0,0.0,0.0,0.0,0.0,324.634824881927,865.6930998492921,1294.9878027532714,1729.7470473411518,1461.6776891323086,1643.1234491905386,1613.064617220548,1252.9050176998087,484.2196162347095,235.55179770270473,0.0,0.0,0.0,0.0,0.0,0.0,0.0,0.0,0.0,0.0,0.0,0.0,0.0,0.0,238.83080291002975,316.9833457365283,238.83080291002975,359.8857069687071,238.2844187908856,994.9465676649728,906.136032052862,657.7407050879689,228.44670267645012,31.424792267850556,0.0,0.0,0.0,0.0,0.0,0.0,0.0,0.0,0.0,0.0,0.0,0.0,0.0,0.0,17.761686826945873,114.7700857035994,179.53271514876528,642.4391477820924,773.3310674627447,360.15889902827917,521.6567352905266,227.3539344381619,137.99701470690712,259.8721954367611,0.0,0.0,0.0,0.0,0.0,0.0,0.0,0.0,0.0,0.0,0.0,0.0,0.0,0.0,113.13023285370664,107.66499067734476,417.54394188007893,817.872581052356,750.1034379669767,938.3811009918894,1025.5517837541074,1236.7831837227554,799.5638096138056,286.92521425899844,0.0,0.0,0.0,0.0,0.0,0.0,0.0,0.0,0.0,0.0,0.0,0.0,0.0,0.0,90.72288002911505,230.35974758591487,430.9338552614115,1604.8667539560054,602.2694076380944,598.9897019383089,679.8748658529885,511.5458271165189,12.570337202616487,266.7033979109832,0.0,0.0,0.0,0.0,0.0,0.0,0.0,0.0,0.0,0.0,0.0,0.0,0.0,0.0,145.10210973316174,644.8978763182407,1393.9085460469291,1663.890949165237,1756.5268741038171,1748.0558187797023,1588.4710274269196,1293.0747578438063,837.0009286696225,315.61738543866807,0.0,0.0,0.0,0.0,0.0,0.0,0.0,0.0,0.0,0.0,0.0,0.0,0.0,46.18136643950389,532.0408355241062,1061.8954340791756,1454.845786165626,1685.205533751541,1781.6668480165897,1744.5036215128057,1586.011598398311,1296.3537630511316,865.6930998492921,331.7399199081816,0.0,0.0,0.0,0.0,0.0,0.0,0.0,0.0,0.0,0.0,0.0,0.0,0.0,47.00094261822004,512.9124879068396,1023.3655467850704,1392.542585749069,1617.7095827257335,1714.171597483243,1688.211346899294,1587.6507507557435,1258.0970678165986,835.3610758197299,321.629011734174,0.0,0.0,0.0,0.0,0.0,0.0,0.0,0.0,0.0,0.0,0.0,0.0,0.0,59.29808776126448,539.1452300579003,1062.1686261387476,1478.6197997805382,1657.6061308101596,1748.3290108392744,1468.7820836661024,1392.8150773161806,1067.6338683151096,843.0125549651286,181.99214417737417,0.0,0.0,0.0,0.0,0.0,0.0,0.0,0.0,0.0,0.0,0.0,0.0,0.0,1.0927682382881985,299.49485096915447,685.6140005813827,968.9863170810236,1103.1579424614615,1302.0921972870656,1378.0592036369876,916.5201322864418,806.1225205209162,571.3902989969275,193.7429052012745,0.0,0.0,0.0,0.0,0.0,0.0,0.0,0.0,0.0,0.0,0.0,0.0,0.0,13.116721321760588,482.5804638772773,967.6203567831636,1355.925042871968,1592.569608812961,1690.9446684799352,1664.984417895986,1518.2424553129315,1227.218659667892,785.3543200537567,303.5941328476561,0.0,0.0,0.0,0.0,0.0,0.0,0.0,0.0,0.0,0.0,0.0,0.0,0.0,0.0,71.86772447142052,101.92655644141084,323.26886458406676,452.2484398477149,482.3072718177051,583.960636199544,371.908959559719,322.7224804649227,343.48998043962155,127.61291447332746,0.0,0.0,0.0,0.0,0.0,0.0,0.0,0.0,0.0,0.0,0.0,0.0,0.0,0.0,7.924671204970763,352.50741988288047,627.1361894912949,811.86095475685,1227.765043787036,1402.9259854901882,1097.6927002850998,1357.8373872889724,512.3661037876956,175.4341337627241,0.0,0.0,0.0,0.0,0.0,0.0,0.0,0.0,0.0,0.0,0.0,0.0,0.0,57.658234911371736,178.98633102962117,385.8459575526563,680.1487584050209,941.3869141396424,1820.7438199222995,1757.893534894138,1601.5870482562202,1316.3023873395746,888.1011531663443,358.2465546112748,0.0,0.0,0.0,0.0,0.0,0.0,0.0,0.0,0.0,0.0,0.0,0.0,0.0,73.7807693808853,547.3430933224432,1058.6164288718503,1425.0601462552077,1648.8611829340125,1728.381087043292,1694.2229731948,1549.3940555212102,1272.853641988252,859.9546656133582,348.68203055641135,0.0,0.0,0.0,0.0,0.0,0.0,0.0,0.0,0.0,0.0,0.0,0.0,0.0,67.2220584737748,208.22558682089533,871.1590425181143,1052.8772941434563,1628.3668750188851,1713.8977049312105,1683.565680901648,1537.097610870626,1261.649965575956,853.6698472582802,331.46672784860954,0.0,0.0,0.0,0.0,0.0,0.0,0.0,0.0,0.0,0.0,0.0,0.0,0.0,29.785639910418265,110.67080382509774,544.6104722342623,512.3661037876956,707.4742687943698,971.1725540500606,791.9130309608672,1010.2488254633098,497.8827216756143,155.21301790716933,0.2731920595720496,0.0,0.0,0.0,0.0,0.0,0.0,0.0,0.0,0.0,0.0,0.0,0.0,0.0,0.0,14.209489560048786,7.105095026254614,85.5308299123252,554.7213804082699,385.0256808814796,888.3736447334558,963.794266964234,638.0659733515582,69.95467956195573,327.91383008925203,0.0,0.0,0.0,0.0,0.0,0.0,0.0,0.0,0.0,0.0,0.0,0.0,0.0,98.64755123408578,618.1180495555755,1170.1068088756642,1567.4296349001884,1815.0046851939053,1905.4543731634485,1802.161856424177,1646.6756464574355,1355.925042871968,930.7296218464908,393.4967362055946,0.0,0.0,0.0,0.0,0.0,0.0,0.0,0.0,0.0,0.0,0.0,0.0,0.0,104.38598547001972,606.0947969645636,1114.3616188737574,1477.2531389902176,1697.5026788945852,1785.4929378355191,1748.3290108392744,1595.02903784157,1317.1219635182908,901.4903660552166,379.56043870511775,0.0,0.0,0.0,0.0,0.0,0.0,0.0,0.0,0.0,0.0,0.0,0.0,0.0,69.40829544281162,548.7097541127639,860.7749422845349,1188.961964433359,1442.27614945547,1443.095725634186,1443.6421097533305,865.41990778972,606.3679890241356,831.2624944336885,364.2581809067808,0.0,0.0,0.0,0.0,0.0,0.0,0.0,0.0,0.0,0.0,0.0,0.0,0.0,39.622655532393374,337.47835414411554,758.3013012315195,905.3157553816854,1103.1579424614615,1076.6513077583684,1328.5988319901587,987.568280579146,498.7029983467908,156.03259408588548,154.6659332955648,0.0,0.0,0.0,0.0,0.0,0.0,0.0,0.0,0.0,0.0,0.0,0.0,0.0,84.71125373360906,415.3577049110421,559.6402384654876,927.1774245795934,1287.6095156674446,1269.8471283480385,1168.4676565182322,1011.6154862536304,978.2769485838546,567.8381017300304,131.71219635182908,0.0,0.0,0.0,0.0,0.0,0.0,0.0,0.0,0.0,0.0,0.0,0.0,0.0,45.08789770875524,250.03447932232552,659.1073658782896,680.1487584050209,851.2104182296713,1035.9358839876868,1202.8982619338356,1061.8954340791756,940.567337960926,682.0611028220252,211.7777840877924,0.0,0.0,0.0,0.0,0.0,0.0,0.0,0.0,0.0,0.0,0.0,0.0,0.0,121.87448023739356,615.9318125865386,1104.5239027593218,1454.299402046482,1651.5945045146536,1787.6784743120957,1735.212289517514,1561.1448165451104,1258.9173444877752,823.61101528829,357.69946999967027,0.0,0.0,0.0,0.0,0.0,0.0,0.0,0.0,0.0,0.0,0.0,0.0,0.0,133.35204920172183,659.9269420570057,1190.3286252236796,1573.1680691361223,1807.3539065409668,1897.5297019584773,1860.3664754546928,1525.6207423987582,1400.7397485211516,889.1939214046325,426.8352738753703,0.0,0.0,0.0,0.0,0.0,0.0,0.0,0.0,0.0,0.0,0.0,0.0,0.0,129.7991514423643,603.3621758763827,1029.6503651401483,1575.9006902243034,1785.4929378355191,1861.459243692981,1808.173482719683,1612.7914251609764,1254.5448705497013,835.3610758197299,359.066130789991,0.0,0.0,0.0,0.0,0.0,0.0,0.0,0.0,0.0,0.0,0.0,0.0,0.0,137.99701470690712,61.75751678987336,1206.450459200733,528.4886382572091,647.0841132872775,892.4729266119574,1909.0072709228057,1703.5143051900914,1405.385414518797,943.8463431682512,425.1954210254776,0.0,0.0,0.0,0.0,0.0,0.0,0.0,0.0,0.0,0.0,0.0,0.0,0.0,152.75358887856044,679.6023742858769,1181.0379937208486,1531.359176634692,1744.5029210203447,1828.6677906348095,1798.8821507243915,1635.198777985568,1362.75624534619,946.30577219686,426.8352738753703,0.0,0.0,0.0,0.0,0.0,0.0,0.0,0.0,0.0,0.0,0.0,0.0,0.0,162.04422038139143,718.4054536395539,1241.9745333470848,1624.8146777519885,1853.8084650400428,1941.7980234885165,1897.2565098989053,1730.5673240123288,1389.2628800492837,972.5385143479208,445.4165368810323,22.68054488416365,0.0,0.0,0.0,0.0,0.0,0.0,0.0,0.0,0.0,0.0,0.0,0.0,163.95726529085624,700.9162583797198,1217.9280281650608,1575.6274981647312,1781.393655957018,1792.5973323693136,1755.7072979251009,1595.02903784157,1305.645095046423,911.328082169652,410.43954734628466,15.576150350369476,0.0,0.0,0.0,0.0,0.0,0.0,0.0,0.0,0.0,0.0,0.0,0.0,161.2246442026753,630.142002639048,1193.3344383714327,1557.8658113377858,1764.178353249216,1834.133032811172,1809.5394430175431,1567.9760190193324,1290.6153288151977,893.2925027906734,400.60183123184913,13.936297500476735,0.0,0.0,0.0,0.0,0.0,0.0,0.0,0.0,0.0,0.0,0.0,0.0,169.14931540764607,692.1720109960329,1187.0489195238945,1550.2143321923868,1762.2653083397513,1855.7208094570472,1824.0228251296248,1664.984417895986,1385.7106827823864,936.1948640228524,426.8352738753703,24.59358979362844,0.0,0.0,0.0,0.0,0.0,0.0,0.0,0.0,0.0,0.0,0.0,0.0,153.84635711684865,594.8911205522677,1186.7757274643222,1380.791824725169,1743.136960722485,1809.8126350771151,1766.637782277825,1605.9595221942936,1314.116150370538,673.0436633787664,410.7127394058568,20.7682004671593,0.0,0.0,0.0,0.0,0.0,0.0,0.0,0.0,0.0,0.0,0.0,0.0,172.15512855539905,673.3168554383384,912.42085040794,1056.1569998432417,1122.0123975266958,1643.9430253692549,1776.7479899593725,1096.326039494779,1296.9008476627362,879.9032899018015,406.06707340821106,18.581963498122462,0.0,0.0,0.0,0.0,0.0,0.0,0.0,0.0,0.0,0.0,0.0,0.0,146.741262090594,526.5755933477443,1015.4408755800996,1510.3177841079607,1731.660092250617,1380.5186326655964,1509.4982079292447,1304.5516263156744,1185.682959226034,860.7749422845349,411.805507644145,23.226929003307745,0.0,0.0,0.0,0.0,0.0,0.0,0.0,0.0,0.0,0.0,0.0,0.0,128.43319114450406,458.533258202793,459.89991899311366,261.5113477941934,704.1952635870448,955.0500195805467,1775.928413780656,1616.6168144874457,1342.8083215502074,937.0144402015684,421.3700316990085,30.33202402956236,0.0,0.0,0.0,0.0,0.0,0.0,0.0,0.0,0.0,0.0,0.0,0.0,198.6610627660318,721.138074727735,1203.7185386050123,1167.1009957279114,1756.8000661633891,1821.290204041444,1793.6901006076018,1642.02998045979,1367.401911343836,959.6956855781924,438.58533440681026,35.79726620592423,0.0,0.0,0.0,0.0,0.0,0.0,0.0,0.0,0.0,0.0,0.0,0.0,207.4060106421792,719.4982218778423,1179.6713329305278,1503.4865816337388,1743.9565369012007,1825.6619774870571,1777.021182018944,1411.123848754731,1350.1866086360342,920.3455216129108,437.49186567606154,35.524074146352184,0.0,0.0,0.0,0.0,0.0,0.0,0.0,0.0,0.0,0.0,0.0,0.0,204.67338955399825,706.1083084965096,1032.3829862283294,1118.1870082002265,1433.8050941313552,1598.3087435413554,1428.8855355816768,1389.5360721088557,1185.682959226034,582.5939754092233,279.2737351135997,13.936297500476735,0.0,0.0,0.0,0.0,0.0,0.0,0.0,0.0,0.0,0.0,0.0,0.0,28.41897912009757,118.59547503006851,187.45738635373604,353.32769655405707,189.37043126320083,125.70057005632312,431.2070473209836,597.3505495808766,45.36179026078774,338.0247382632596,160.4043675314987,0.2731920595720496,0.0,0.0,0.0,0.0,0.0,0.0,0.0,0.0,0.0,0.0,0.0,0.0,113.13023285370664,351.96103576373633,563.1924357323848,527.6683615860326,789.7267939918304,642.4384472896319,604.1817520550987,659.6537499974337,635.6072448154097,196.20163373742295,90.72288002911505,0.0,0.0,0.0,0.0,0.0,0.0,0.0,0.0,0.0,0.0,0.0,0.0,0.0,33.6110292368874,142.36948864498078,531.4944514049621,769.7788701958477,1299.360276691345,1783.3060003740222,1440.089912486433,1399.646980282863,1308.924100253748,571.3902989969275,274.35487705638195,16.395726529085625,0.0,0.0,0.0,0.0,0.0,0.0,0.0,0.0,0.0,0.0,0.0,0.0,242.93008478853136,263.6975847632303,809.9479098473852,1284.8768945792638,1825.6619774870571,1900.5355151062304,1880.5875913102475,1736.305758248263,1451.8399730178733,532.8604117028224,268.8896348800201,22.134160765019548,0.0,0.0,0.0,0.0,0.0,0.0,0.0,0.0,0.0,0.0,0.0,0.0,289.65783534717934,876.8967762615879,1388.9896879897117,1753.7942530156363,1954.914744810277,2023.5034640743725,1988.799666599197,1802.9814326028932,1494.7423342500515,1050.9649497264518,491.8710953801083,53.559653525330546,0.0,0.0,0.0,0.0,0.0,0.0,0.0,0.0,0.0,0.0,0.0,0.0,286.10493758782184,845.4719839937375,1320.674160785188,1645.0364941000034,1824.8424013083409,1874.8491570743136,1860.9128595738368,1677.5540546061422,1383.7976378729215,975.8182200477064,474.1094085531624,51.10022449672166,0.0,0.0,0.0,0.0,0.0,0.0,0.0,0.0,0.0,0.0,0.0,0.0,282.5527403209247,821.6979703788252,1278.5920762241858,1659.7923677791964,1854.9012332783311,1025.2785916945352,1899.9891309870864,1724.008613105218,1440.3631045460052,990.300901667327,485.31308496545824,60.93724011869678,0.0,0.0,0.0,0.0,0.0,0.0,0.0,0.0,0.0,0.0,0.0,0.0,278.45345844242314,807.2152887592043,1270.394212959643,1598.5819356009274,858.86189737507,1462.2240732514524,1489.0031995216575,1120.100053109691,715.399640491801,556.6344253177347,274.628069115954,25.959550091488683,0.0,0.0,0.0,0.0,0.0,0.0,0.0,0.0,0.0,0.0,0.0,0.0,30.878408148706463,68.31552720452343,74.8735376191735,253.5866765892226,563.7395203439892,773.0578754031728,994.3994830533682,784.5347438750407,776.3368806104977,368.08357023325,184.72476526555508,11.750060531439898,0.0,0.0,0.0,0.0,0.0,0.0,0.0,0.0,0.0,0.0,0.0,0.0,12.02325259101195,51.64590812340531,193.469012649242,300.3144271478706,310.9717194410223,332.2863040273257,228.44670267645012,257.95915052729634,222.1618843213721,121.32809611824943,56.01838206147899,0.0,0.0,0.0,0.0,0.0,0.0,0.0,0.0,0.0,0.0,0.0,0.0,0.0,5.192050116789825,4.918858057217776,86.62429864307384,145.92168591187786,258.77872670601243,185.81823399630372,221.88869226180003,133.35204920172183,272.16864008734507,225.4408895286971,109.03165146766544,2.732621088180937,0.0,0.0,0.0,0.0,0.0,0.0,0.0,0.0,0.0,0.0,0.0,0.0,295.9426537022574,807.4884808187762,1243.3411941374056,1548.847671402066,972.5385143479208,841.9197867268402,1128.2979163742343,886.4613003164515,1402.9259854901882,462.08545546969,476.84202964134334,63.94305326644976,0.0,0.0,0.0,0.0,0.0,0.0,0.0,0.0,0.0,0.0,0.0,0.0,82.25182470500017,403.8808364391742,811.86095475685,930.7296218464908,812.4073388759941,886.1881082568794,1041.6743182236207,894.1127794618502,1199.072872607367,686.433576760099,351.96103576373633,48.913987527684824,0.0,0.0,0.0,0.0,0.0,0.0,0.0,0.0,0.0,0.0,0.0,0.0,327.91383008925203,856.1292762868891,1170.927085546841,1372.5946619530862,1604.0471777772896,1678.6475233368908,1611.6979564302274,1466.5958466970658,1197.1598276979018,705.0155402582214,359.066130789991,52.466184794581906,0.0,0.0,0.0,0.0,0.0,0.0,0.0,0.0,0.0,0.0,0.0,0.0,317.2572382885608,735.3475642877838,928.5433848774536,1044.6801313713738,1095.779655375635,1218.7476043437773,1472.607472992572,1250.9926732828044,722.5040350255953,398.9619783819563,198.11467864688777,21.04139252673135,0.0,0.0,0.0,0.0,0.0,0.0,0.0,0.0,0.0,0.0,0.0,0.0,156.57897820502956,380.9270994954385,602.8157917572385,1618.52985939691,1788.7719430428444,1867.470869988487,1816.371345984226,1667.1699543725626,1387.6237276918512,956.1427878188352,228.71989473602213,67.2220584737748,0.0,0.0,0.0,0.0,0.0,0.0,0.0,0.0,0.0,0.0,0.0,0.0,329.2804908795727,822.2450549904296,762.127391050449,1063.2613943770357,1364.3960981960831,1786.0393219546631,1728.9274711624355,1576.4470743434472,1316.8487714587188,936.4680560824246,272.7150242064892,39.07627141324927,0.0,0.0,0.0,0.0,0.0,0.0,0.0,0.0,0.0,0.0,0.0,0.0,56.01838206147899,284.46578523038954,496.78995343732606,541.3314670269373,797.3775726447687,1150.4320771392538,1260.83038939724,1223.939654460567,1387.6237276918512,652.8225475232115,212.32416820693655,27.87259500095347,0.0,0.0,0.0,0.0,0.0,0.0,0.0,0.0,0.0,0.0,0.0,0.0,368.62995435239407,923.3513347606638,1390.9027328991765,1716.083941900247,1904.0877123731275,1976.7757135157249,1924.8559128402867,1753.7942530156363,1466.3226546374938,1044.6801313713738,520.0168824406338,77.60615870735444,0.0,0.0,0.0,0.0,0.0,0.0,0.0,0.0,0.0,0.0,0.0,3.825389326469136,376.5546255573648,897.9381687883193,1349.093840397746,1619.0762435160543,1807.0800139889343,1877.0353940433504,1895.6173575414732,1665.803994074702,1387.3498351398189,989.2074329365786,503.8950484635807,80.33877979553537,0.0,0.0,0.0,0.0,0.0,0.0,0.0,0.0,0.0,0.0,0.0,13.936297500476735,394.3170128767711,925.2643796701286,1368.2214875225525,1677.28086254657,1846.430177954216,1898.0767865700816,1852.714996309294,1698.5954471328737,1429.4326201932815,1024.4583150233584,526.3024012881723,85.5308299123252,0.0,0.0,0.0,0.0,0.0,0.0,0.0,0.0,0.0,0.0,0.0,10.1109081740076,340.21097523229645,656.6479368496807,991.1204778460432,1114.3616188737574,1386.2570669015304,1190.6018172832516,1562.7846693950032,848.2046050819183,886.7344923760236,968.4399329618795,474.65579267230646,77.3329666477824,0.0,0.0,0.0,0.0,0.0,0.0,0.0,0.0,0.0,0.0,0.0,0.0,314.7978092599519,485.85946908460227,451.9745472956824,499.522574525507,793.2789912587276,1034.569223197366,616.4788971981433,577.9490099040381,593.7976518215191,368.62995435239407,111.76427255584638,45.63498232035978,0.0,0.0,0.0,0.0,0.0,0.0,0.0,0.0,0.0,0.0,0.0,0.0,126.24695417546722,377.374201736081,357.69946999967027,1706.2469262782722,1940.7052552502284,2025.6897010434093,1922.66967587125,1765.5443135470762,1480.2589521379707,1058.3432368122783,523.2965881404193,85.80402197189726,0.0,0.0,0.0,0.0,0.0,0.0,0.0,0.0,0.0,0.0,0.0,30.878408148706463,435.3063291994851,1003.1437304370552,1499.9343843668416,1836.8656538993523,2035.5267166653848,2097.55742551483,2030.3353670410552,1840.1446591066776,1492.8292893405871,789.4536019322585,431.7534314401276,92.36273287900778,0.0,0.0,0.0,0.0,0.0,0.0,0.0,0.0,0.0,0.0,0.0,32.24506893902715,436.67228949734545,985.9284277292534,1448.5602673180874,1761.718924220607,1945.624113307446,2004.648308516678,1943.711068397981,1770.1899795447218,1475.887178692357,1028.011212782716,533.9538804335709,94.82216190761667,0.0,0.0,0.0,0.0,0.0,0.0,0.0,0.0,0.0,0.0,0.0,37.98350317496107,448.96943464038986,990.8472857864712,1422.601417719059,1716.904218571424,1882.7738282792843,1933.0537761048297,1872.3897280457047,1709.5259314855975,1438.7232516961124,1033.74964701865,534.7734566122871,92.36273287900778,0.0,0.0,0.0,0.0,0.0,0.0,0.0,0.0,0.0,0.0,0.0,40.71612426314201,440.77157137584703,976.0914121072782,1419.3217120192735,1718.8165629884284,1654.053233050802,1963.3858001343915,1909.55365504195,1748.0558187797023,1466.5958466970658,1024.1851229637866,531.2212593453901,93.45550111729597,0.0,0.0,0.0,0.0,0.0,0.0,0.0,0.0,0.0,0.0,0.0,43.1755532917509,426.8352738753703,941.11372208007,964.340651083378,865.4206082821804,973.6319830786694,437.7650577356336,1365.7620584939432,1704.0606893092354,1405.658606578369,997.4052962011212,500.88853482336725,95.0953539671887,0.0,0.0,0.0,0.0,0.0,0.0,0.0,0.0,0.0,0.0,0.0,41.80889250143021,414.26493667275383,597.3505495808766,1067.360676255537,1650.5017362763654,1419.3217120192735,1898.3492781371936,1839.3250829279616,1690.397583868331,1426.6999991051005,1032.1097941687572,526.5755933477443,96.46131426504896,0.0,0.0,0.0,0.0,0.0,0.0,0.0,0.0,0.0,0.0,0.0,48.64079546811277,421.64322375858046,906.9556082315784,1080.2035050252657,1313.8429583109655,576.8555411732893,1241.7020417799731,1570.7086401075137,1315.75530272797,765.679588317346,496.78995343732606,232.2727924953797,88.80983511965024,0.0,0.0,0.0,0.0,0.0,0.0,0.0,0.0,0.0,0.0,0.0,40.71612426314201,71.59453241184846,287.7447904377146,374.36838858832795,462.9057321408666,880.7228660805175,1305.371902986851,774.6970277606051,729.0627459327058,440.22448676424256,368.08357023325,221.88869226180003,96.46131426504896,0.0,0.0,0.0,0.0,0.0,0.0,0.0,0.0,0.0,0.0,0.0,26.233442643521176,150.5673519095236,966.8000801119867,1028.2844048422885,1223.6664624009948,1298.5400000201682,1224.759230639283,1378.3323956965598,1231.0447494868215,1152.3451220487184,797.9246572563733,514.2784482046999,104.65917752959174,0.0,0.0,0.0,0.0,0.0,0.0,0.0,0.0,0.0,0.0,0.0,2.732621088180937,25.413165972344583,103.29321723173152,159.31159929321052,165.05003352914446,263.42439270365816,325.1812090010711,758.3013012315195,668.1248053215485,506.3537769997291,327.64063802967996,93.72869317686802,0.0,0.0,0.0,0.0,0.0,0.0,0.0,0.0,0.0,0.0,0.0,0.0,66.1292902354866,483.40004005599343,1011.341593701598,1408.664419726122,1686.299002482289,1852.16861219015,1904.36160492516,1849.1627990423972,1701.0548761614823,1428.3391514625328,1038.3946125238351,550.3496069626565,106.57222243905656,0.0,0.0,0.0,0.0,0.0,0.0,0.0,0.0,0.0,0.0,0.0,71.86772447142052,483.6732321155655,980.7363776124636,1379.9722485464524,1658.4257069888756,1511.4112528387095,1889.8782228130788,1818.010498341658,1667.9902310437392,1393.9085460469291,313.1579564100591,542.1517436981137,110.9439958846698,0.0,0.0,0.0,0.0,0.0,0.0,0.0,0.0,0.0,0.0,0.0,73.7807693808853,499.795766585079,1042.2207023427648,1484.904618135616,1791.2306715789928,1968.0314661320376,2018.3114139575828,1728.9274711624355,1368.7685721341568,1510.0445920483887,1080.204205517726,467.550697646052,111.21788843670228,0.0,0.0,0.0,0.0,0.0,0.0,0.0,0.0,0.0,0.0,0.0,77.60615870735444,503.8950484635807,1040.8540415524442,1479.7125680188265,1784.946553716375,1964.7524609247123,2017.4918377788665,1965.2988450438568,1795.0567613979224,1505.125733991171,1087.5817921110922,346.4957935873745,113.40342491327868,0.0,0.0,0.0,0.0,0.0,0.0,0.0,0.0,0.0,0.0,0.0,80.88516391467948,505.807392880585,1004.237199167804,1452.659549196589,1751.0616319274552,1923.4899525424264,1973.2235162488275,1918.0247103660645,1745.5963897510935,986.4748118483976,1031.0170259304691,545.1575568458668,121.32809611824943,0.0,0.0,0.0,0.0,0.0,0.0,0.0,0.0,0.0,0.0,0.0,85.25763785275315,509.08639808791,1007.5162043751288,1408.39122766655,1683.8395734536805,1840.691043225822,1884.9600652483216,1642.8502571309666,1689.03092307801,1413.856469842912,1034.2960311377942,562.6460516132406,124.06071720643035,0.0,0.0,0.0,0.0,0.0,0.0,0.0,0.0,0.0,0.0,0.0,87.17068276221794,520.2907749926663,1018.7198807874246,1454.02620998691,1741.7710004246242,1903.815220806016,1961.4734557173877,1908.7333783707732,1330.7850689591958,1476.1603707519296,1067.9070603746816,561.8264754345244,121.60128817782147,0.0,0.0,0.0,0.0,0.0,0.0,0.0,0.0,0.0,0.0,0.0,45.90817437993184,192.10305235138176,620.3042865246123,1060.8019653484268,1335.430034464381,1425.3333383147797,1499.9336838743811,1789.045135102417,1629.1871516900617,1364.9424823152272,991.6668619651872,529.8545985550694,118.59547503006851,0.0,0.0,0.0,0.0,0.0,0.0,0.0,0.0,0.0,0.0,0.0,88.80983511965024,345.4030253490863,748.7367771766559,1023.9119309042144,971.4457461096326,1681.1069523654996,861.0481343441068,1630.8263040474942,1053.9707628742049,968.4399329618795,565.3786727014215,294.5759929119367,94.82216190761667,0.0,0.0,0.0,0.0,0.0,0.0,0.0,0.0,0.0,0.0,0.0,26.50663470309323,170.5152757055063,812.4073388759941,600.6295547882016,1170.6538934872688,1361.117092988758,1387.896219258963,667.3052291428324,654.7355924326763,655.8283606709646,473.8362164935904,269.70921105873623,80.33877979553537,0.0,0.0,0.0,0.0,0.0,0.0,0.0,0.0,0.0,0.0,0.0,94.54826935558415,249.7612872627535,720.5916906085909,1000.137917289302,662.1131790260425,1506.765586841064,1596.9420827510348,1235.4165229324349,1085.1223630824834,712.3938273440481,498.9761904063629,255.77291355825943,84.71125373360906,0.0,0.0,0.0,0.0,0.0,0.0,0.0,0.0,0.0,0.0,0.0,2.732621088180937,254.4069532603992,60.39085599955268,92.90911699815186,356.8798938209542,720.318498549019,929.3636615486304,734.8004796761793,661.0204107877543,752.0164828764415,609.9201862910327,345.9494094682304,99.46712741280196,0.0,0.0,0.0,0.0,0.0,0.0,0.0,0.0,0.0,0.0,0.0,0.0,305.7796693242325,323.26886458406676,309.87895120273413,1218.7476043437773,1028.2844048422885,603.6353679359546,769.5049776438153,502.52838767326,439.6781026450984,411.5323155845729,104.65917752959174,57.385042851799696,0.0,0.0,0.0,0.0,0.0,0.0,0.0,0.0,0.0,0.0,0.0,27.053018822237323,83.07140088371632,205.4929657327144,772.5107907915682,1749.1485870179906,1893.704312632008,1947.8096497840224,1672.9083886084964,1752.9746768369205,1480.2589521379707,1054.7903390529211,576.5823491137173,130.89262017311296,0.0,0.0,0.0,0.0,0.0,0.0,0.0,0.0,0.0,0.0,0.0,106.02583831991248,551.7155672605169,1042.2207023427648,1420.6883728095945,1683.8395734536805,1833.3134566324557,1871.8433439265607,1810.0858271366872,1654.6003176624065,1391.7223090778923,1019.8133495181734,556.3612332581627,124.06071720643035,0.0,0.0,0.0,0.0,0.0,0.0,0.0,0.0,0.0,0.0,0.0,105.47875370830792,545.4307489054388,1028.011212782716,1396.9143591946822,1646.1292623382917,1789.045135102417,1827.5750223965215,1779.4806110475529,1637.3850149546045,1386.5302589611026,1022.2720780543218,562.9192436728126,128.43319114450406,0.0,0.0,0.0,0.0,0.0,0.0,0.0,0.0,0.0,0.0,0.0,112.85704079413456,550.3496069626565,1038.3946125238351,1416.3158988715206,1678.374331277319,1824.8424013083409,1863.91867272159,1889.0586466343625,1662.524988867377,1413.0368936641958,1044.6801313713738,575.7627729350012,133.35204920172183,0.0,0.0,0.0,0.0,0.0,0.0,0.0,0.0,0.0,0.0,0.0,115.0432777631714,547.3430933224432,1024.7315070829306,1391.7223090778923,1654.3271256028345,1795.6031455170669,1832.4938804537392,1656.2394700198388,1631.0994961070662,1377.7860115774156,1008.8828651654496,557.7271935560228,136.3578623494748,0.0,0.0,0.0,0.0,0.0,0.0,0.0,0.0,0.0,0.0,0.0,116.13604600145962,544.3372801746901,988.6610488174344,1426.9731911646725,1690.6707759279027,1641.2104042810738,1896.4369337201897,1834.679416930316,1674.8214335179612,1418.5021358405577,1012.7082544919188,560.4598146442038,137.17743852819098,0.0,0.0,0.0,0.0,0.0,0.0,0.0,0.0,0.0,0.0,0.0,106.02583831991248,459.079642321937,866.2401844608966,1237.8759519610437,889.1939214046325,955.323211640119,1645.035793607543,1620.1690117543426,1486.816962552621,1097.9658923446718,997.9523808127258,490.7783271418201,140.18325167594395,0.0,0.0,0.0,0.0,0.0,0.0,0.0,0.0,0.0,0.0,0.0,128.7063832040761,486.95223732289054,805.0297522826279,1102.6115583423175,1136.4957796387769,1380.2454406060249,1539.010655780091,1460.5849208940203,1164.6415666993023,674.9567082882311,489.1384742919273,350.3218834063041,101.10698026269466,0.0,0.0,0.0,0.0,0.0,0.0,0.0,0.0,0.0,0.0,0.0,30.33202402956236,350.3218834063041,649.5435423158865,870.0655737873659,1236.2367996036114,1307.8306315229995,1465.5030784587775,1731.3869001910446,1567.7028269597608,1323.133589813797,967.346464231131,530.1277906146414,146.46807003102197,0.0,0.0,0.0,0.0,0.0,0.0,0.0,0.0,0.0,0.0,0.0,97.2808904437651,305.7796693242325,635.6072448154097,912.6940424675122,847.1111363511696,877.4438608731924,1310.8371451632129,1251.8122494615204,1416.5890909310929,1143.053790053427,981.5566542836402,545.9771330245829,151.6601201478118,0.0,0.0,0.0,0.0,0.0,0.0,0.0,0.0,0.0,0.0,0.0,131.71219635182908,543.7908960555461,1018.1734966682804,1400.193364402007,1307.0110553442832,1757.620342834566,1791.7777561905973,1734.939097457942,1582.732593190986,694.6314400246417,994.6726751129404,549.256138231908,150.0209677903795,0.0,0.0,0.0,0.0,0.0,0.0,0.0,0.0,0.0,0.0,0.0,127.88680702535996,538.8720379983283,1003.9640071082316,825.2508681381827,1411.3970408143032,1810.632911748292,1855.4476173974751,1733.8463292196536,1355.378658752824,1065.1744392865005,802.8435153135912,434.7592445878807,113.95050952488322,0.0,0.0,0.0,0.0,0.0,0.0,0.0,0.0,0.0,0.0,0.0,78.42643537853104,20.7682004671593,293.48322467364846,577.9490099040381,1307.0110553442832,890.287390135381,775.5173044317817,1195.520675340469,1209.4569728409465,629.8681100870155,426.5613813233379,304.1405169668002,158.49202311449437,0.0,0.0,0.0,0.0,0.0,0.0,0.0,0.0,0.0,0.0,0.0,142.36948864498078,609.3738021718887,1131.3037295219872,1530.2657079039434,1803.2546246624652,1956.2814056005975,1989.0728586587688,1915.8384733970277,1751.3348239870274,1478.0734156613942,1093.5934184065982,598.1701257595928,160.4043675314987,0.0,0.0,0.0,0.0,0.0,0.0,0.0,0.0,0.0,0.0,0.0,142.64268070455284,586.1468731685809,1053.4243787550608,1423.4209938977756,1672.08881242978,1811.452487927008,1848.3425223712204,1804.0742008411817,1643.3966412501106,1399.1005961637188,1034.022839078222,584.7802123782602,159.8579834123546,0.0,0.0,0.0,0.0,0.0,0.0,0.0,0.0,0.0,0.0,0.0,80.88516391467948,577.1287332328615,1040.8540415524442,1408.39122766655,1666.0771861342744,1808.719866838827,1845.60990128304,1299.0863841393125,1654.6003176624065,1392.2686931970366,1029.6503651401483,578.7685860827542,157.67174644331777,0.0,0.0,0.0,0.0,0.0,0.0,0.0,0.0,0.0,0.0,0.0,142.36948864498078,558.5467697347391,1008.8828651654496,1364.9424823152272,1611.9711484897998,1749.4224795700231,1786.3125140142356,1545.295474135169,1612.5175326089436,332.0131119677537,522.4763114692428,574.1229200851085,168.60223079604154,0.0,0.0,0.0,0.0,0.0,0.0,0.0,0.0,0.0,0.0,0.0,148.9274990596309,456.62021329332816,997.6784882606931,1349.367032457318,1590.6572643959569,1728.381087043292,1532.1787528134082,1166.5546116087671,451.42816317653825,1215.4678986439917,788.6333252610817,566.1982488801376,171.881936495827,0.0,0.0,0.0,0.0,0.0,0.0,0.0,0.0,0.0,0.0,0.0,147.5615387617706,548.7097541127639,994.3994830533682,1349.093840397746,1596.9420827510348,1737.3985264865507,968.4399329618795,1754.6138291943528,1584.9181296675624,1344.1749823405282,994.6726751129404,484.2196162347095,167.78265461732536,0.0,0.0,0.0,0.0,0.0,0.0,0.0,0.0,0.0,0.0,0.0,145.64849385230582,559.6402384654876,1031.2902179900411,1403.1991775497602,1660.3387518983402,1807.3539065409668,1848.3425223712204,1802.9814326028932,1651.3213124550814,1395.0013142852176,1003.6908150486596,576.5823491137173,169.14931540764607,0.0,0.0,0.0,0.0,0.0,0.0,0.0,0.0,0.0,0.0,0.0,147.28834670219857,553.3554201104096,995.2197597245448,1388.9896879897117,1657.8793228697316,1803.2546246624652,1842.6040881352865,1789.8647112811327,1637.1111224025722,1340.6220845811706,990.8472857864712,571.3902989969275,170.5152757055063,0.0,0.0,0.0,0.0,0.0,0.0,0.0,0.0,0.0,0.0,0.0,91.81564826740323,535.0466486718592,906.9563087240388,1216.2888758076288,1585.1920222195947,1598.034850989323,1462.4972653110249,1613.3378092801204,1366.855527224692,1220.114265134098,887.0076844355955,562.3728595536686,172.70151267454315,0.0,0.0,0.0,0.0,0.0,0.0,0.0,0.0,0.0,0.0,0.0,150.84054396909568,467.8238897056239,979.3704173146032,1321.2205449043322,1557.0455346666088,1687.9381548397218,1733.2999451005098,1688.484538958866,931.8223900847788,1085.1223630824834,968.7131250214516,470.5565107938049,180.07979976036984,0.0,0.0,0.0,0.0,0.0,0.0,0.0,0.0,0.0,0.0,0.0,154.93912535513684,537.7792697600402,962.4283066663736,1305.371202494391,1547.4817111042055,1685.4787258111128,1732.2064763697608,1681.926528544216,1535.1845659611618,1132.94358237188,897.3917846691752,429.8410870231232,162.8637965601076,0.0,0.0,0.0,0.0,0.0,0.0,0.0,0.0,0.0,0.0,0.0,133.07815664968933,548.4365620531918,860.5017502249627,1122.286290078728,1408.9383122781546,1214.3751304057034,1265.7485469619971,1348.0003716669976,1199.8924487860827,1188.4155803142148,875.8040080232998,341.8508280821892,167.50946255775332,0.0,0.0,0.0,0.0,0.0,0.0,0.0,0.0,0.0,0.0,0.0,127.3397224137554,524.1161643191355,849.0241812606345,1157.263980105936,1411.6709333663357,1528.352662994479,1646.6756464574355,1537.6439949897704,1407.2984594282618,1359.7504321984372,1016.533643818388,592.1584994640867,168.05584667689743,0.0,0.0,0.0,0.0,0.0,0.0,0.0,0.0,0.0,0.0,0.0,139.9100596163719,429.0208103519467,850.1176499913831,1151.7987379295744,1341.1691691927751,1463.590033549313,1573.9876453148386,1474.5205179020363,1454.02620998691,1194.4272066097208,787.8137490823656,526.0292092286002,171.0616598246504,0.0,0.0,0.0,0.0,0.0,0.0,0.0,0.0,0.0,0.0,0.0,140.18325167594395,528.4886382572091,762.127391050449,1126.658764016802,1273.126834047824,1096.052847435207,582.3207833496513,1058.61572837939,1328.3256399305867,1068.1802524342534,835.3610758197299,522.7495035288147,173.5210888532593,0.0,0.0,0.0,0.0,0.0,0.0,0.0,0.0,0.0,0.0,0.0,144.82891767358967,515.0987248758764,910.2353139313636,1142.781298486315,1404.292646280509,1464.682801787601,1587.6507507557435,1430.2521963719976,1267.38839981189,1013.8010227302068,799.5638096138056,509.63348269951456,69.13510338323958,0.0,0.0,0.0,0.0,0.0,0.0,0.0,0.0,0.0,0.0,0.0,132.2585804709732,551.9887593200889,984.5624674313932,1327.2328716922984,1563.6042455737197,1697.7758709541572,1736.5782498153742,1691.490352106619,1551.853484549819,1324.5002506041176,994.3994830533682,583.1403595283674,187.18419429416397,0.0,0.0,0.0,0.0,0.0,0.0,0.0,0.0,0.0,0.0,0.0,135.81077773787027,548.7097541127639,970.352277378884,1311.929913401501,1549.1208634616382,1680.5605682463556,819.2385413502162,934.0086270538156,1159.4495165825126,1309.7436764324643,971.4457461096326,572.2098751756437,173.79428091283134,0.0,0.0,0.0,0.0,0.0,0.0,0.0,0.0,0.0,0.0,0.0,159.03840723363848,300.04123508829855,949.0383932850408,1284.0573184005475,1520.7018843415403,1284.6037025196918,1198.7996805477944,749.8302459074046,181.172567998658,609.6469942314607,670.8574264097294,473.5630244340183,177.34717867218887,0.0,0.0,0.0,0.0,0.0,0.0,0.0,0.0,0.0,0.0,0.0,146.19487797144993,562.9192436728126,1014.8944914609556,1372.593961460626,1622.082056663807,1764.72473736836,1807.0800139889343,1514.1438739268904,1634.1053092548193,1383.5244458133495,1041.1272336120162,613.7462761099622,189.37043126320083,0.0,0.0,0.0,0.0,0.0,0.0,0.0,0.0,0.0,0.0,0.0,153.02678093813248,543.5177039959741,963.2478828450896,1298.2668079605965,1533.8179051708407,1667.443846924595,1713.898405423671,1676.1880943082815,1542.0164689278438,1316.3023873395746,722.7772270851673,492.9645641108569,196.20163373742295,0.0,0.0,0.0,0.0,0.0,0.0,0.0,0.0,0.0,0.0,0.0,149.47388317877494,550.6227990222287,623.8564837915094,1319.0350084277557,857.4952365847494,1704.3338813688074,1722.0962686882135,1314.116150370538,1552.4005691614236,1320.9473528447602,1002.0509621987668,595.983888790556,193.469012649242,0.0,0.0,0.0,0.0,0.0,0.0,0.0,0.0,0.0,0.0,0.0,149.47388317877494,544.8836642938343,969.2595091405958,1311.929913401501,1533.545413603729,1257.5506836974544,1733.5731371600814,1670.7221516394598,1538.464271660947,1314.38934243011,987.8414726387182,590.791838673766,198.93425482560392,0.0,0.0,0.0,0.0,0.0,0.0,0.0,0.0,0.0,0.0,0.0,154.39274123599276,389.94453893869746,959.4224935186206,1289.2493685173374,1519.062731984108,1654.3271256028345,1694.7693573139438,1643.6698333096826,1511.9576369578535,951.49782231365,674.410324169087,561.8264754345244,182.53922878897868,0.0,0.0,0.0,0.0,0.0,0.0,0.0,0.0,0.0,0.0,0.0,154.39274123599276,536.6858010292914,948.7652012254688,1287.3363236078728,1524.8011662200422,906.136032052862,1210.0033569600903,265.61062967269504,1462.2240732514524,1308.1045240750318,1018.9930728469968,606.6411810837076,188.00377047288015,0.0,0.0,0.0,0.0,0.0,0.0,0.0,0.0,0.0,0.0,0.0,151.11373602866772,538.8720379983283,966.5268880524148,1305.9182871059952,1547.208519044634,1165.4618433704793,1749.4224795700231,1387.6237276918512,659.1073658782896,70.22857211398822,107.39179861777272,99.19393535322988,58.20461903051582,0.0,0.0,0.0,0.0,0.0,0.0,0.0,0.0,0.0,0.0,0.0,151.11373602866772,539.4191226099329,954.5036354614028,1296.6276556031642,1537.6439949897704,1443.095725634186,750.1034379669767,1122.286290078728,1561.4180086046829,1317.1219635182908,996.5857200224052,514.2784482046999,209.3183550591835,0.0,0.0,0.0,0.0,0.0,0.0,0.0,0.0,0.0,0.0,0.0,86.07721403146931,527.6683615860326,937.8347168727452,1035.9351834952265,1522.8881213105774,1070.3664894032904,673.8639400499429,1017.6271125491364,1299.6334687509172,860.5017502249627,235.55179770270473,15.029065738764936,193.7429052012745,0.0,0.0,0.0,0.0,0.0,0.0,0.0,0.0,0.0,0.0,0.0,151.11373602866772,533.1336037623944,956.9623639975512,1304.8248183752464,1523.7076974892934,1196.6134435787576,853.6698472582802,1261.1028809643517,1317.6683476374349,1318.214731756579,966.8000801119867,256.3192976774036,116.40923806103164,0.0,0.0,0.0,0.0,0.0,0.0,0.0,0.0,0.0,0.0,0.0,150.84054396909568,534.7734566122871,953.136974671082,1295.2609948128434,1536.0041421398776,1121.1928213479796,389.94453893869746,1494.7423342500515,1354.2858905145358,989.4813254886108,117.22951473220826,205.4929657327144,148.65430700005882,0.0,0.0,0.0,0.0,0.0,0.0,0.0,0.0,0.0,0.0,0.0,93.18230905772393,337.2051620845435,281.45997208263657,306.326753935837,509.63348269951456,725.2373566062366,1402.9259854901882,1230.7715574272495,372.7292362308957,71.04814829270437,317.5304303481328,230.35974758591487,138.8172913780837,0.0,0.0,0.0,0.0,0.0,0.0,0.0,0.0,0.0,0.0,0.0,147.01515464262653,533.9538804335709,955.0500195805467,1303.7320501369584,1518.7888394320755,1362.4830532866183,1712.2585525737782,1660.0655598387684,1524.8011662200422,1304.8248183752464,1012.4350624323464,610.7404629622093,200.30091561592457,1.9130449094647888,0.0,0.0,0.0,0.0,0.0,0.0,0.0,0.0,0.0,0.0,129.25276732322018,533.9538804335709,971.4457461096326,1327.2328716922984,1584.6456381004507,1262.7427338142445,1580.8195482815213,1211.6425093175226,1425.0601462552077,1275.0398789572887,1026.6445519923957,604.7281361742428,221.61550020222796,1.9130449094647888,0.0,0.0,0.0,0.0,0.0,0.0,0.0,0.0,0.0,0.0,120.23532787996125,530.4009826742134,946.032580137288,1192.7880542522885,1519.8823081628243,1467.1429313086703,1405.658606578369,1572.0753008978345,1081.2969737560145,1129.1174925529504,1012.1618703727746,615.6586205269666,200.02772355635253,2.1862369690368384,0.0,0.0,0.0,0.0,0.0,0.0,0.0,0.0,0.0,0.0,143.462256883269,549.8025223510521,985.3820436101092,1325.866210901978,1416.5890909310929,1492.0097131618709,1829.7612593655583,1768.5501266948295,1631.9197727782428,1402.9259854901882,1037.028652225975,630.961578817764,196.47552628945544,4.098581386041185,0.0,0.0,0.0,0.0,0.0,0.0,0.0,0.0,0.0,0.0,125.70057005632312,444.0505765831722,800.6565778520937,1162.182838163154,1367.675103403408,1488.7300074620855,1572.6216850169783,1676.1880943082815,1536.27803469191,1319.308200487328,1005.05677534652,611.5600391409255,202.76034464453343,1.639852849892739,0.0,0.0,0.0,0.0,0.0,0.0,0.0,0.0,0.0,0.0,133.35204920172183,492.691372051285,794.9181436161598,767.0455486152064,651.1826946733188,1062.9889028099242,1452.113165077445,1062.9882023174637,1347.180795488281,1089.4948370205568,849.571265872239,212.5973602665086,174.0674729724034,0.0,0.0,0.0,0.0,0.0,0.0,0.0,0.0,0.0,0.0,0.0,129.25276732322018,407.9801183176758,963.521074904662,472.1963636436976,174.88774964357998,128.159999084932,524.1161643191355,985.3820436101092,1671.2692362510645,1208.0903120506257,779.6158858178228,555.540956586986,224.62131334998097,4.372473938073677,0.0,0.0,0.0,0.0,0.0,0.0,0.0,0.0,0.0,0.0,0.0,122.96794896814218,492.4174794992523,755.2954880837665,1362.75624534619,1583.27897731013,1813.9119169556172,1510.0445920483887,1332.1510292570558,731.2482824092821,908.595461081471,471.10359540540946,201.9407684658173,2.1862369690368384,0.0,0.0,0.0,0.0,0.0,0.0,0.0,0.0,0.0,0.0,121.60128817782147,526.3024012881723,799.2906175542334,1288.7022839057329,1520.9750764011123,1660.885136017485,1516.3301108959274,1439.5428278748284,1550.7607163115308,1313.8429583109655,1002.597346317911,615.3854284673946,208.4987788804674,4.098581386041185,0.0,0.0,0.0,0.0,0.0,0.0,0.0,0.0,0.0,0.0,141.27601991423217,521.1103511713824,943.026766989535,1285.1500866388358,1531.6323686942642,1684.1127655132527,1729.4738552815802,1018.4466887278528,1583.552169369702,1340.0757004620266,971.9921302287768,626.8622969392624,208.77197094003947,6.558010414650074,0.0,0.0,0.0,0.0,0.0,0.0,0.0,0.0,0.0,0.0,131.71219635182908,518.6509221427735,949.584777404185,1117.9138161406545,854.7626154965684,341.30374347058466,1797.242297874499,1696.9555942829809,1634.1053092548193,1145.240027022464,340.21097523229645,489.13917478438776,210.68501584950425,6.558010414650074,0.0,0.0,0.0,0.0,0.0,0.0,0.0,0.0,0.0,0.0,136.9042464686189,511.5458271165189,937.0144402015684,1289.2493685173374,1553.22014534014,1699.4150233115895,1747.7826267201306,274.90126117552603,200.84729973506867,618.9383262267521,797.6507647043408,439.1317185259543,148.1079228809147,0.0,0.0,0.0,0.0,0.0,0.0,0.0,0.0,0.0,0.0,0.0,117.5027067917803,512.3661037876956,940.840530020498,1295.5341868724154,1548.301287282922,363.7117967876367,325.72829361267566,311.24491150059436,578.7685860827542,752.0164828764415,802.570323254019,611.0136550217813,210.41182378993216,0.0,0.0,0.0,0.0,0.0,0.0,0.0,0.0,0.0,0.0,0.0,83.61778500286042,469.46374255551666,899.30482957864,1288.4297923386212,1088.1288767226968,472.1963636436976,1267.661591871462,1310.8371451632129,1037.028652225975,1064.3548631077845,514.8255328163044,620.0310944650403,118.32228297049647,0.0,0.0,0.0,0.0,0.0,0.0,0.0,0.0,0.0,0.0,0.0,146.741262090594,294.5759929119367,756.115764754943,1004.783583286948,57.11185079222764,131.71219635182908,188.00377047288015,404.4272205583183,858.588705315498,1289.2493685173374,827.7095966743311,28.41897912009757,212.87125281854105,0.0,0.0,0.0,0.0,0.0,0.0,0.0,0.0,0.0,0.0,0.0,127.88680702535996,506.3537769997291,923.3513347606638,1270.121020900071,1504.032965752883,1710.3462081567736,1759.8058793111422,1645.3089856671152,1517.9692632533597,1123.9254424361604,988.3878567578624,605.0013282338149,234.4583289719561,0.0,0.0,0.0,0.0,0.0,0.0,0.0,0.0,0.0,0.0,0.0,134.71800949958208,487.22612987492295,885.0946395261308,1253.4521023114132,1518.5156473725035,1315.75530272797,1436.2638226675033,1694.2229731948,1549.1208634616382,1312.4762975206452,964.8877356949826,592.7048835832309,203.03353670410553,0.0,0.0,0.0,0.0,0.0,0.0,0.0,0.0,0.0,0.0,0.0,132.8049645901173,491.3247112609642,893.5663953427061,1231.8643256655378,1319.5806920544394,1514.6902580460346,1460.037836282416,1441.4558727842934,1294.7146106936991,1127.478340195518,869.5191896682218,589.6990704354779,221.61550020222796,0.0,0.0,0.0,0.0,0.0,0.0,0.0,0.0,0.0,0.0,0.0,127.3397224137554,481.7608876985611,874.4380477254394,1204.5381147837284,1461.131305013164,1223.939654460567,1021.1793098160337,1640.9372122215018,250.03447932232552,395.13658905548726,444.0505765831722,614.2919597366459,206.31254191143057,0.0,0.0,0.0,0.0,0.0,0.0,0.0,0.0,0.0,0.0,0.0,128.159999084932,484.2196162347095,882.3627189304103,1214.375830898164,1457.578407253807,1602.9537090465408,1086.489023872804,1019.8133495181734,1524.8011662200422,1292.8015657842343,987.8414726387182,614.8390443482505,234.185136912384,1.639852849892739,0.0,0.0,0.0,0.0,0.0,0.0,0.0,0.0,0.0,0.0,120.78171199910535,491.8710953801083,907.7751844102944,1255.0912546688455,1502.6663049625622,1645.3089856671152,1531.6323686942642,1448.2870752585154,888.3743452259162,1152.6183141082906,917.886092584302,579.0417781423262,229.26697934762663,1.639852849892739,0.0,0.0,0.0,0.0,0.0,0.0,0.0,0.0,0.0,0.0,116.13604600145962,466.1847373481916,735.6207563473557,1114.3616188737574,1376.966435398699,1325.866210901978,1367.1287192842638,995.7661438436888,1212.189593929127,1021.1793098160337,891.9265424928134,578.22220196361,79.79239567639128,0.0,0.0,0.0,0.0,0.0,0.0,0.0,0.0,0.0,0.0,0.0,29.512447850846208,156.57897820502956,439.1317185259543,508.540013968766,1039.4873807621236,1449.9276286008687,1352.9192297242153,1345.5409426383883,1223.393270341423,939.2006771706054,652.8225475232115,497.8827216756143,191.55666823223763,0.0,0.0,0.0,0.0,0.0,0.0,0.0,0.0,0.0,0.0,0.0,119.68894376081714,305.7796693242325,473.5630244340183,819.7856259618206,1244.9810469872984,1254.8180626092735,1171.7466617255573,1461.6776891323086,1443.6421097533305,1080.75058963687,858.86189737507,444.0505765831722,157.67174644331777,0.0,0.0,0.0,0.0,0.0,0.0,0.0,0.0,0.0,0.0,0.0,102.19974850098288,467.2775055864799,859.1350894346419,1195.520675340469,1091.681073989594,1268.7543601097502,551.7155672605169,1568.7962956905092,1392.542585749069,1011.341593701598,259.0519187655845,114.22370158445528,0.0,0.0,0.0,0.0,0.0,0.0,0.0,0.0,0.0,0.0,0.0,0.0,118.86866708964055,467.8238897056239,859.9546656133582,1205.9047755740492,1471.5147047542837,905.589647933718,1479.7125680188265,1494.1952496384472,952.590590551938,1190.0554331641074,775.7904964913537,518.3777300832014,148.9274990596309,0.0,0.0,0.0,0.0,0.0,0.0,0.0,0.0,0.0,0.0,0.0,111.76427255584638,474.3826006127344,894.6591635809942,1099.05866058296,1275.0398789572887,1346.361219309565,1098.785468523388,1043.8598547001973,1299.0863841393125,1318.4879238161511,892.1997345523854,581.7743992305071,227.6271264977339,1.639852849892739,0.0,0.0,0.0,0.0,0.0,0.0,0.0,0.0,0.0,0.0,115.0432777631714,469.1905504959447,879.6300978422292,1230.4983653676777,1483.265465778184,1634.6523938664238,1487.090855104653,1673.4554732201009,1541.1968927491275,1327.506063751871,1010.2488254633098,616.2057051385711,209.04516299961148,0.0,0.0,0.0,0.0,0.0,0.0,0.0,0.0,0.0,0.0,0.0,113.13023285370664,467.2775055864799,768.6854014650991,1060.8026658408874,988.3878567578624,406.6134575273551,268.8896348800201,662.1131790260425,1301.8197057199538,953.9572513422586,785.0811279941848,612.1064232600695,168.32903873646947,0.0,0.0,0.0,0.0,0.0,0.0,0.0,0.0,0.0,0.0,0.0,97.2808904437651,329.2804908795727,895.4787397597104,509.3602906399425,1207.5439279314814,1200.438832905227,282.5527403209247,410.9859314654288,784.2615518154687,761.3078148717328,607.4607572624238,338.57112238240376,66.1292902354866,0.0,0.0,0.0,0.0,0.0,0.0,0.0,0.0,0.0,0.0,0.0,50.00675576597303,348.13564643726727,126.24695417546722,338.8450149344362,406.6134575273551,771.4180225532799,805.849328461344,894.6591635809942,945.4854955256832,955.8695957592632,120.23532787996125,302.50066411690744,188.2776630249126,0.0,0.0,0.0,0.0,0.0,0.0,0.0,0.0,0.0,0.0,0.0,36.616842384640385,276.8143060849908,417.8171339396509,697.3640611128227,1594.7558457819978,1340.0757004620266,1747.2362426009863,1153.984274406151,724.41707993506,1266.2956315736017,1029.6503651401483,624.1296758510815,217.51621832372635,0.0,0.0,0.0,0.0,0.0,0.0,0.0,0.0,0.0,0.0,0.0,91.54245620783118,478.2079899392036,932.0955821443506,1341.1691691927751,1613.3378092801204,709.3873137038346,1473.7009417233205,1734.6659053983697,1594.7558457819978,1378.605587756132,1050.1453735477355,476.29564552219927,199.48133943720845,0.0,0.0,0.0,0.0,0.0,0.0,0.0,0.0,0.0,0.0,0.0,99.46712741280196,470.5565107938049,902.583834785965,1260.5564968452074,1511.4112528387095,1662.7974804344888,1194.4272066097208,1688.757731018438,1046.592475788378,1343.3547056693517,1013.2546386110628,614.0194681695343,221.34230814265592,0.0,0.0,0.0,0.0,0.0,0.0,0.0,0.0,0.0,0.0,0.0,104.9323695891638,457.9868740836488,746.2780486405076,1121.19352184044,1320.9473528447602,1476.4335628115014,1675.0946255775332,1634.6523938664238,752.2896749360135,983.1958066410724,995.4922512916564,603.9085599955267,192.64943647052584,0.0,0.0,0.0,0.0,0.0,0.0,0.0,0.0,0.0,0.0,0.0,101.10698026269466,450.33539493825015,861.5945184632509,1216.0149832555962,1470.1487444564234,1621.262480485091,1673.4554732201009,1659.7923677791964,1531.6323686942642,1317.941539697007,1003.9640071082316,605.8216049049915,215.05678929511743,0.0,0.0,0.0,0.0,0.0,0.0,0.0,0.0,0.0,0.0,0.0,90.17649590997092,453.6144001455753,889.1939214046325,1252.0854415210924,1117.6406240810825,602.8157917572385,1743.957237393661,1684.1127655132527,1617.7095827257335,1394.1817381065011,1062.1686261387476,626.8622969392624,200.30091561592457,0.0,0.0,0.0,0.0,0.0,0.0,0.0,0.0,0.0,0.0,0.0,81.15905646671197,451.7020557285709,829.3494495242239,867.0597606396129,404.15402849874624,1031.2902179900411,1483.538657837756,1343.6285982213842,1111.3558057260043,1105.6173714900706,752.0164828764415,508.540013968766,198.38787070645975,0.0,0.0,0.0,0.0,0.0,0.0,0.0,0.0,0.0,0.0,0.0,75.6938142903501,369.4502310235706,764.8600121386298,1147.6994560510727,1267.3876993194294,1478.8929918401102,1714.9911736619592,1436.8102067866475,1323.133589813797,1223.393270341423,1002.597346317911,523.5697801999913,188.55085508448468,0.0,0.0,0.0,0.0,0.0,0.0,0.0,0.0,0.0,0.0,0.0,78.42643537853104,450.0622028786781,896.572208490459,1258.3709603686311,1513.8706818673184,1663.890949165237,1199.072872607367,217.2430262641543,750.6498220861207,1284.8768945792638,1059.709897602599,548.9829461723359,193.7429052012745,0.0,0.0,0.0,0.0,0.0,0.0,0.0,0.0,0.0,0.0,0.0,87.71706688136204,356.33350970181004,738.6265694951088,969.5334016926282,1332.9713059282324,843.5589390842725,696.8176769936786,987.021896460002,1094.6861866448864,932.0962826368112,619.4847103458961,279.8201192327438,113.40342491327868,0.0,0.0,0.0,0.0,0.0,0.0,0.0,0.0,0.0,0.0,0.0,43.1755532917509,306.5999459954091,336.6587779653994,354.96684891148936,1021.1793098160337,871.158342025654,890.5598817024926,1338.1633560450225,1259.7369206664912,1200.9859175168317,708.2945454655464,295.9426537022574,193.19582058967,0.0,0.0,0.0,0.0,0.0,0.0,0.0,0.0,0.0,0.0,0.0,81.43224852628401,440.4976788238146,647.9036894659938,646.8109212277055,1531.359176634692,1253.1789102518412,1244.707154435266,1701.0548761614823,1561.4180086046829,1346.907603428709,713.7597876419084,453.34120808600306,62.85028502816156,0.0,0.0,0.0,0.0,0.0,0.0,0.0,0.0,0.0,0.0,0.0,79.79239567639128,440.77157137584703,871.9786186968305,1233.7773705750026,1490.369860311978,1639.024167312037,1692.036736225763,1653.5068489316575,610.7404629622093,1338.4365481045943,995.2197597245448,594.6179284926957,192.9226285300979,0.0,0.0,0.0,0.0,0.0,0.0,0.0,0.0,0.0,0.0,0.0,73.7807693808853,436.12590537820137,872.7981948755469,1231.3172410539332,1484.0850419569,1634.1060097472796,1295.8073789319876,1726.1948500742549,1524.8011662200422,1314.935726549254,1000.4111093488742,593.7976518215191,166.14350225989307,0.0,0.0,0.0,0.0,0.0,0.0,0.0,0.0,0.0,0.0,0.0,68.86191132366754,343.76317249919356,870.6119579065098,1234.3237546941466,1495.288718369196,1643.3966412501106,1695.8628260446926,1657.3329387505871,1528.353363486939,973.3587910190976,991.9400540247592,580.4077384401864,189.91681538234496,0.0,0.0,0.0,0.0,0.0,0.0,0.0,0.0,0.0,0.0,0.0,41.262508382286114,231.17932376463105,744.9120883426472,700.9162583797198,1075.5585395200803,1337.0698873142735,570.0243386990672,523.0233960808472,673.8639400499429,1156.1705113751875,1018.4466887278528,591.6121153449427,193.469012649242,0.0,0.0,0.0,0.0,0.0,0.0,0.0,0.0,0.0,0.0,0.0,71.59453241184846,426.2881892637658,870.885149966082,1244.9810469872984,1495.288718369196,1309.4704843728923,1726.1948500742549,1190.0554331641074,913.2411270791166,1072
...